/batch
/config,noeldb,1     ! force off writing results to database
*get,_wallstrt,active,,time,wall
! ANSYS input file written by Workbench version 2026 R1
! File used for geometry attach: C:\Users\User\OneDrive\Documents\ANSYS Files\Bike Crank Homework\Bike Crank Homework_files\dp0\SYS\DM\SYS.agdb
/title,Bike Crank Homework--Static Structural (B5)
! ****** Begin Custom Load Command Snippet ******
/COM, ACT Extensions:
/COM,     LSDYNA, 2026.1
/COM,     5f463412-bd3e-484b-87e7-cbc0a665e474, wbex
/COM,     ANSYSMotion, 2026.1
/COM,     20180725-3f81-49eb-9f31-41364844c769, wbex
! ****** End   Custom Load Command Snippet ******
*DIM,_wb_ProjectScratch_dir,string,248
_wb_ProjectScratch_dir(1) = 'C:\Users\User\OneDrive\Documents\ANSYS Files\Bike Crank Homework\_ProjectScratch\ScrC32E\'
*DIM,_wb_SolverFiles_dir,string,248
_wb_SolverFiles_dir(1) = 'C:\Users\User\OneDrive\Documents\ANSYS Files\Bike Crank Homework\Bike Crank Homework_files\dp0\SYS-1\MECH\'
*DIM,_wb_userfiles_dir,string,248
_wb_userfiles_dir(1) = 'C:\Users\User\OneDrive\Documents\ANSYS Files\Bike Crank Homework\Bike Crank Homework_files\user_files\'
/com,--- Data in consistent BIN units. See Solving Units in the help system for more information.
/units,BIN
/nopr
/wb,file,start              !  signify a WB generated input file
/prep7
! Turn off shape checking because checks already performed inside WB mesher.
! See help system for more information.
SHPP,OFF,,NOWARN
/nolist
etcon,set             ! allow ANSYS to choose best KEYOP's for 180x elements, resets any applicable keyopt to MAPDL defaults
/com,*********** Send User Defined Coordinate System(s) ***********
local,12,0,3.34645669291339,0.,0.375,0.,0.,0.
local,13,0,3.34645669291339,0.452755905511811,0.375,0.,0.,0.
csys,0
/com,*********** Nodes for the whole assembly ***********
nblock,3,,55341
(1i9,3e20.9e3)
        1     2.388480081E-01    -7.383515248E-02     7.500000000E-02
        2     2.388530203E-01    -7.381893175E-02     0.000000000E+00
        3     2.500000000E-01     6.123233996E-17     7.500000093E-02
        4     2.499999970E-01     3.061616897E-17     0.000000000E+00
        5     2.939236155E-01    -5.595639288E-02     3.965347882E-02
        6     2.388429984E-01    -7.385137472E-02     1.500000000E-01
        7     2.500000000E-01     6.123233996E-17     1.500000019E-01
        8     2.578779139E-01    -3.893269154E-02     1.125023121E-01
        9     2.388379781E-01    -7.386759371E-02     2.250000000E-01
       10     2.500000000E-01     6.123233996E-17     2.250000028E-01
       11     2.668992400E-01    -4.030607600E-02     1.875086231E-01
       12     2.388329507E-01    -7.388381047E-02     3.000000000E-01
       13     2.500000000E-01     6.123233996E-17     3.000000037E-01
       14     2.704141917E-01    -4.355469375E-02     2.805084540E-01
       15     2.388279403E-01    -7.390003328E-02     3.750000000E-01
       16     2.499999970E-01     3.061616897E-17     3.750000046E-01
       17     2.590491421E-01    -3.912858574E-02     3.375156761E-01
       18     2.061035872E-01    -1.414966761E-01     7.500000000E-02
       19     2.061169389E-01    -1.414772331E-01     0.000000000E+00
       20     2.458466279E-01    -1.237356531E-01     3.896587907E-02
! ... 50291 like lines cut
/wb,elem,start            !  set before creation of elements
/com,*********** Elements for Body 1 'Solid' ***********
et,1,187
MAT,1 $ TYPE,1 $ REAL,1 $ SECNUM,1 $ ESYS,0    ! ELEMNODES = 10
eblock,21,COMPACT,,26850
(21i9)
        1     3395     3276     3394     3321    50308    12904    30663    30661    13494    13492
        2     3395     3211     3276     3321    50307    30446    50308    30661    30324    13494
        3     1923     7526     1920     7383    23961    26226     8584     8587    16987     8588
        4     5234     5215     7383     5216    38553    21525    16988    38489    23954    23963
        5     7383     7602     7635     5887    14700    38455    16990    46251    47295    42246
        6     5311     7602     7601     5257    46431    14697    38862    38863    38758    38864
        7     2398     2397     2395     2534    26237    50120    26243    26240    26251    46910
        8     5415     1835     1839     1836    23745    12044    23742    23743    23746    23739
        9     1842     7511     2590     1838    45859    11985    41893    13172    25969    27315
       10     5439     6416     7618     5410    17618    39229    39277    42489    39228    39225
       11     5415     7618     5366     7558    39224    39227    39096    48093    41899    39091
       12     7558     5415     7511     1842    48093    45858    48597    13179    23751    45859
       13     3510     7453     7467     3506    41002    32637    17746    31033    32636    10467
       14     3513     5815     3508     5452    31028    31025    31029    32653    41006    50119
       15     5675     6773     7755     3425    40312    40315    40314    48264    44447    44452
       16     2190     2187     1673     2188    25097    50118    12943    25076    13944    25077
       17     7155     7467     7666     7453    45422    17749    45296    43808    32637    41003
       18     5844     7453     5814     5833    43809    41087    41158    41131    41099    41098
       19     7467     3510     3506     3509    17746    31033    10467    17748    17747    48932
       20     5544     7675     5561     5534    48161    39798    49744    48158    18429    32285
! ... 26831 like lines cut
secnum,1    ! reset the section ID to default
! Material Id = {65F79E86-6CB2-4172-924A-8F1031746F21}
et,2,186
keyo,2,2,1          ! set full integration on SOLID186
MAT,1 $ TYPE,2 $ REAL,1 $ SECNUM,1 $ ESYS,0    ! ELEMNODES = 20
eblock,21,COMPACT,,4156
(21i9)
    26851     6207     6209     6991     7365     6213     6214     6996     7367    48467    26061    49026    43106    45322    43540    45250    47184    46197    43117    43055     9119
    26852     7365     6991     7283     7282     7367     6996     4867     7286    49026    44583    46477    49072    45250    46747    36957    42305     9119    43055    46753    44937
    26853     7220     5496     5886     7356     7224     7358     5889     7359    43724    17756    43730    29909    48087    45313    35415    47882    46007    41304    42687    46285
    26854     7011     7348     7342     7003     7014     7350     7344     7006    45367    49350    16019    49353    48823    42395    45742    49376    49380    20260    50306    50291
    26855     7348     6553     6542     7342     7350     6555     6545     7344    25421    49005    45601    49350    20273    42512    42515    42395    20260    49348    50249    50306
    26856     7003     7342     7113     6913     7006     7344     7115     6916    16019    44763    42912    44758    45742    45745    43310    44033    50291    50306    50298    50279
    26857     7342     6542     6543     7113     7344     6545     6546     7115    45601    47141    44462    44763    42515    47012    47145    45745    50306    50249    50250    50298
    26858     6067     6057     7333     7056     6070     6063     4953     7059    28934    47067    48648    47127    36607    13468    11413    37803    50175    50173    50305    50294
    26859     6057     6059     6956     7333     6063     6064     6958     4953    44787    49111    44786    47067    42989    10799    13487    13468    50173    50172    50287    50305
    26860     7056     7333     7264     6462     7059     4953     7267     6466    48648    44755    27603    41820    11413    38272    47212    45841    50294    50305    50303    50238
    26861     7333     6956     6454     7264     4953     6958     6457     7267    44786    43102    43085    44755    13487    42450    46017    38272    50305    50287    50236    50303
    26862     7021     7321     7322       75     7023     7324     7325     7024    27136    49045    22107    29748    33236    46637    30783    33221    46671    49044    49270    49269
    26863     7321     6524     6525     7322     7324     6529     6531     7325    27138    46900    49036    49045    33335    49065    49040    46637    49044    41741    48792    49270
    26864     6525     6527     7300     7304     6531     6532     7302     7307    48193    48344    47058    46876    48722    48283    48723    49566    48792    47568    50304    43394
    26865     6527     7312     7182     7300     6532     7314     7185     7302    41829    25226    29452    48344    45353    48491    35533    48283    47568    42943    48132    50304
    26866     7304     7300     6682     7305     7307     7302     6684     7308    47058    46930    46550    24197    48723    33263    41807    47962    43394    50304    41549    47534
    26867     7300     7182     6307     6682     7302     7185     6309     6684    29452    45356    42369    46930    35533    44429    44419    33263    50304    48132    50216    41549
    26868     5861     5851     7292     7098     5864     5857     7294     7101    44549    44661    42708    44551    36063    43826    41954    33911    50126    50124    19555    44490
    26869     5851     5853     6470     7292     5857     5858     6472     7294    48214    46528    19536    44661    44662    41932    18026    43826    50124    50123    44487    19555
    26870     7282     7283     7284     7275     7286     4867     7287     7278    46477    42470    43790    14573    36957    15908    36966    43326    44937    46753    46738    42465
! ... 4137 like lines cut
secnum,1    ! reset the section ID to default
! Material Id = {65F79E86-6CB2-4172-924A-8F1031746F21}
/wb,elem,end               !  done creating elements
toffst,459.67,      ! Temperature offset from absolute zero
/com,*********** Set Reference Temperature ***********
tref,71.6
/wb,mat,start              !  starting to send materials
/com,*********** Send Materials ***********
MP,EX,1,9999999.99889292,	! slinch s^-2 in^-1
MP,NUXY,1,0.33,
MP,UVID,1,e5dd731c-59d4-4507-a5f8-c20d8fdf9e53

/wb,mat,end                !  done sending materials
!************************* Model Summary ********************
! Solid,	Al 6061 T6,	matid,	1
!************************* End Model Summary ********************
! get the diagonal of the bounding box. Needed later for other things
*get,_xmin,node,,mnloc,x
*get,_ymin,node,,mnloc,y
*get,_zmin,node,,mnloc,z
*get,_xmax,node,,mxloc,x
*get,_ymax,node,,mxloc,y
*get,_zmax,node,,mxloc,z
_ASMDIAG=(_xmax-_xmin)*(_xmax-_xmin)+(_ymax-_ymin)*(_ymax-_ymin)+(_zmax-_zmin)*(_zmax-_zmin)
_ASMDIAG=SQRT(_ASMDIAG)
/wb,contact,start          !  starting to send contact
/wb,contact,end            !  done creating contacts
/golist
/wb,load,start             !  starting to send loads
/com,*********** Fixed Supports ***********
CMBLOCK,_FIXEDSU,NODE,      528
(8i10)
         1        -4         6         7         9        10        12        13
        15        16        18        19        21        23        25        27
        29        30        32        34        36        38        40        41
        43        45        47        49        51        52        54        56
        58        60        62       -65        67        68        70        71
        73        74        76        77        79        80        82        84
        86        88        90       -93        95        96        98        99
       101       102       104       105       107       108       110       112
       114       116      1002     -1005      1007      1008      1010      1011
      1013      1014      1016      1017      1019      1020      1022      1024
      1026      1028      1030      1031      1033      1035      1037      1039
      1041      1042      1044      1046      1048      1050      1057     -1060
      1062      1063      1065      1066      1068      1069      1071      1072
      1074      1075      1077      1079      1081      1083      1085      1086
      1088      1090      1092      1094      1096      1097      1099      1101
      1103      1105      1112      1113      1115      1117      1119      1121
      1180      1181      1183      1185      1187      1189      1191      1192
      1194      1196      1198      1200      1202      1203      1205      1207
      1209      1211      1213      1214      1216      1218      1220      1222
      1224      1225      1227      1229      1231      1233      1235      1236
! ... 46 like lines cut
cmsel,s,_FIXEDSU
d,all,all
nsel,all
/com,*********** Define Force Using Surface Effect Elements ***********
local,14,0,0.,0.,0.,0.,0.,0.
csys,0
et,3,154
MAT,3 $ TYPE,3 $ REAL,3 $ SECNUM,3 $ ESYS,14    ! ELEMNODES = 8
eblock,21,COMPACT,,32
(21i9)
    34093     3372     5307     5250     3368    44189    46959    44184     8350
    34094     5307     3251     3253     5250    46547     8342    13167    46959
    34095     3375     5356     5307     3372    42839    45811    44189     8349
    34096     5356     3249     3251     5307    30261     8341    46547    45811
    34097     3377     5284     5356     3375    38820    45340    42839     8348
    34098     5284     3248     3249     5356    30373     8340    30261    45340
    34099     3379     5283     5284     3377    30630    38817    38820     8347
    34100     5283     3246     3248     5284    45133     8339    30373    38817
    34101     3398     5378     5283     3379    48515    39139    30630     8362
    34102     5378     3244     3246     5283    49474     8338    45133    39139
    34103     3383     5391     5378     3398    13441    30673    48515     8361
    34104     5391     3243     3244     5378     8376     8337    49474    30673
    34105     3384     5309     5391     3383     9307    49526    13441     8360
    34106     5309     3240     3243     5391    18423     8336     8376    49526
    34107     3386     5220     5309     3384    30652    38857     9307     8359
    34108     5220     3237     3240     5309    30238     8335    18423    38857
    34109     3387     5219     5220     3386    12917    48376    30652     8354
    34110     5219     3235     3237     5220    30232     8334    30238    48376
    34111     3389     5225     5219     3387    46468    38582    12917     8353
    34112     5225     3233     3235     5219    48028     8333    30232    38582
! ... 13 like lines cut
secnum,1    ! reset the section ID to default
esel,s,type,,3
keyop,3,2,1         ! Apply load in local coordinate system
keyop,3,7,1         ! Use original area so load is constant in large deformation
esel,all
/gst,on,on
fini
*get,_numnode,node,0,count
*get,_numelem,elem,0,count
*get, _MAXELEMNUM, elem, 0, NUM, MAX
*get, _MAXNODENUM, node, 0, NUM, MAX
*get, _MAXELEMTYPE, etyp, 0, NUM, MAX
*get, _MAXREALCONST, rcon, 0, NUM, MAX
/go
/wb,load,end               !  done creating loads
/com,--- Number of total nodes = %_numnode%
/com,--- Number of contact elements = 32
/com,--- Number of spring elements = 0
/com,--- Number of bearing elements = 0
/com,--- Number of solid elements = 31006
/com,--- Number of condensed parts = 0
/com,--- Number of total elements = %_numelem%
*get,_wallbsol,active,,time,wall
/com,****************************************************************************
/com,*************************    SOLUTION       ********************************
/com,****************************************************************************
/solu
antype,0                   ! static analysis
_thickRatio=  1     ! Ratio of thick parts in the model
eqsl,pcg,1e-8,,,,,,1
cntr,print,1               ! print out contact info and also make no initial contact an error
cncheck,dmp		!	Enable program controlled contact splitting for distributed memory parallel run
dmpoption,emat,no             ! Don't combine emat file for DANSYS
dmpoption,esav,no             ! Don't combine esav file for DANSYS
nldiag,cont,iter           ! print out contact info each equilibrium iteration
rescontrol,,none                 ! Do not keep any restart files
/com,****************************************************
/com,******************* SOLVE FOR LS 1 OF 1 ****************
esel,s,type,,3
nsle
sfe,all,1,pres,1,0.
sfe,all,2,pres,1,509.308314043082
sfe,all,3,pres,1,0.
nsel,all
esel,all
/nopr
/gopr
nsub,1,1,1
time,1.
outres,erase
outres,all,none
outres,nsol,all,
outres,rsol,all
outres,eangl,all
outres,etmp,all
outres,veng,all
outres,strs,all,
outres,bkstr,all,
outres,epel,all,
outres,eppl,all,
outres,cont,all,
outres,nldat,all,
stabilize,off                   ! Stabilization turned OFF by user
! *********** WB SOLVE COMMAND ***********
! check interactive state
*get,ANSINTER_,active,,int
*if,ANSINTER_,ne,0,then
/eof
*endif
solve
/com *************** Write FE CONNECTORS ********* 
CEWRITE,file,ce,,INTE
/com,****************************************************
/com,*************** FINISHED SOLVE FOR LS 1 *************
fini
*get,_wallasol,active,,time,wall
/nopr
*get,_numnode,node,0,count
*get,_numelem,elem,0,count
*get, _MAXELEMNUM, elem, 0, NUM, MAX
*get, _MAXNODENUM, node, 0, NUM, MAX,,,INTERNAL
*get, _MAXELEMTYPE, etyp, 0, NUM, MAX
*get, _MAXREALCONST, rcon, 0, NUM, MAX
*get,_NSOLTHREADS,active,0,ntfs
*get,_NSOLPROCESSES,active,0,npfs
/gopr
*get,_PCGITER,active,,solu,cgiter
/post1
xmlo,ENCODING,ISO-8859-1
xmlo,parm
/xml,parm,xml
fini
/gopr
*get,_walldone,active,,time,wall
_preptime=(_wallbsol-_wallstrt)*3600
_solvtime=(_wallasol-_wallbsol)*3600
_posttime=(_walldone-_wallasol)*3600
_totaltim=(_walldone-_wallstrt)*3600
*get,_dlbratio,active,0,solu,dlbr
*get,_combtime,active,0,solu,comb
*get,_ssmode,active,0,solu,ssmm
*get,_ndofs,active,0,solu,ndof
*get,_sol_end_time,active,0,set,time
*if,_sol_end_time,eq,1.000000,then
/fclean				!clean distributed files
*endif
/com,--- Total number of nodes = %_numnode%
/com,--- Total number of elements = %_numelem%
/com,--- Element load balance ratio = %_dlbratio%
/com,--- Time to combine distributed files = %_combtime%
/com,--- Sparse memory mode = %_ssmode%
/com,--- Number of DOF = %_ndofs%
/wb,file,end               ! done with WB generated input
