/batch
/config,noeldb,1     ! force off writing results to database
*get,_wallstrt,active,,time,wall
! ANSYS input file written by Workbench version 2026 R1
! File used for geometry attach: C:\Users\User\OneDrive\Documents\ANSYS Files\Bike Crank_files\dp0\SYS\DM\SYS.agdb
/title,Bike Crank--Static Structural (A5)
! ****** Begin Custom Load Command Snippet ******
/COM, ACT Extensions:
/COM,     LSDYNA, 2026.1
/COM,     5f463412-bd3e-484b-87e7-cbc0a665e474, wbex
/COM,     ANSYSMotion, 2026.1
/COM,     20180725-3f81-49eb-9f31-41364844c769, wbex
! ****** End   Custom Load Command Snippet ******
*DIM,_wb_ProjectScratch_dir,string,248
_wb_ProjectScratch_dir(1) = 'C:\Users\User\OneDrive\Documents\ANSYS Files\_ProjectScratch\Scr5ECA\'
*DIM,_wb_SolverFiles_dir,string,248
_wb_SolverFiles_dir(1) = 'C:\Users\User\OneDrive\Documents\ANSYS Files\Bike Crank_files\dp0\SYS\MECH\'
*DIM,_wb_userfiles_dir,string,248
_wb_userfiles_dir(1) = 'C:\Users\User\OneDrive\Documents\ANSYS Files\Bike Crank_files\user_files\'
/com,--- Data in consistent BIN units. See Solving Units in the help system for more information.
/units,BIN
/nopr
/wb,file,start              !  signify a WB generated input file
/prep7
! Turn off shape checking because checks already performed inside WB mesher.
! See help system for more information.
SHPP,OFF,,NOWARN
/nolist
etcon,set             ! allow ANSYS to choose best KEYOP's for 180x elements, resets any applicable keyopt to MAPDL defaults
/com,*********** Send User Defined Coordinate System(s) ***********
csys,0
/com,*********** Nodes for the whole assembly ***********
nblock,3,,9729
(1i9,3e20.9e3)
        1     6.928576328E+00    -2.844954480E-01     1.250000000E-01
        2     6.869985821E+00    -3.663007490E-01     1.250000000E-01
        3     6.813686429E+00    -2.188923757E-01     1.250000000E-01
        4     6.772399240E+00    -3.591125062E-01     1.250000000E-01
        5     6.928806361E+00    -2.843395211E-01     6.249999962E-02
        6     6.870143352E+00    -3.661903546E-01     6.249999982E-02
        7     6.814243533E+00    -2.185840767E-01     6.249999918E-02
        8     6.772647573E+00    -3.589707834E-01     6.249999984E-02
        9     6.998790924E+00    -1.873087899E-01     1.249999999E-01
       10     6.908069587E+00    -1.273098937E-01     1.250000000E-01
       11     6.998855147E+00    -1.871828048E-01     6.249999971E-02
       12     6.908201309E+00    -1.270865670E-01     6.249999961E-02
       13     6.808304883E+00     3.576651505E-01     1.250000000E-01
       14     6.897354571E+00     3.597539407E-01     1.250000000E-01
       15     6.820162759E+00     2.151920006E-01     1.250000000E-01
       16     6.944546340E+00     2.845318376E-01     1.250000000E-01
       17     6.807950261E+00     3.578703251E-01     6.250000871E-02
       18     6.897083736E+00     3.599235168E-01     6.250000455E-02
       19     6.819232388E+00     2.157394000E-01     6.250001993E-02
       20     6.944094385E+00     2.848694282E-01     6.250000503E-02
! ... 8826 like lines cut
/wb,elem,start            !  set before creation of elements
/com,*********** Elements for Body 1 'Bike Crank 2 rev 2011 x.375' ***********
et,1,186
keyo,1,2,1          ! set full integration on SOLID186
MAT,1 $ TYPE,1 $ REAL,1 $ SECNUM,1 $ ESYS,0    ! ELEMNODES = 20
eblock,21,COMPACT,,1626
(21i9)
        1     2061     2064     1887     1886     2421     2424     2247     2246     7954     7953     7431     7943     2430     8845     8453     8839     8838     8844     8424     8419
        2     2064     2063     1888     1887     2424     2423     2248     2247     7952     7950     7404     7953     2683     8843     8426     8845     8844     8842     8427     8424
        3     2063     2062     1896     1888     2423     2422     2256     2248     7949     7947     7430     7950     2684     8841     8452     8843     8842     8840     8449     8427
        4     2062     1749     1748     1896     2422     2109     2108     2256     7946     7030     7868     7947     2681     8055     8782     8841     8840     8056     8054     8449
        5     1744     1714     1710     1745     2104     2074     2070     2105     7944     6946     7872     7021     2679     7973     8784     8047     8046     7974     7966     8048
        6     1713     2061     1886     1709     2073     2421     2246     2069     7941     7943     7396     6950     2429     8839     8418     7976     7975     8838     8419     7963
        7     1750     2060     1890     1751     2110     2420     2250     2111     7940     7939     7894     7034     2671     8837     8799     8058     8057     8836     8431     8059
        8     2060     2059     1876     1890     2420     2419     2236     2250     7938     7936     7410     7939     2672     8835     8432     8837     8836     8834     8391     8431
        9     2059     2058     1840     1876     2419     2418     2200     2236     7935     7933     7370     7936     2669     8833     8392     8835     8834     8832     8292     8391
       10     2058     2057     1841     1840     2418     2417     2201     2200     7932     7930     7272     7933     2670     8831     8294     8833     8832     8830     8295     8292
       11     2057     2056     1875     1841     2417     2416     2235     2201     7929     7927     7368     7930     2667     8829     8390     8831     8830     8828     8387     8295
       12     2056     2055     1874     1875     2416     2415     2234     2235     7926     7924     7366     7927     2668     8827     8388     8829     8828     8826     8384     8387
       13     2055     1755     1754     1874     2415     2115     2114     2234     7923     7043     7890     7924     2431     8066     8797     8827     8826     8067     8065     8384
       14       88       90     1937     1897      168      169     2297     2257     2961     7921     7897     7898     3134     8825     8801     8802     3130     3133     8561     8454
       15       90       92     1935     1937      169      170     2295     2297     2965     7920     7540     7921     3137     8824     8562     8825     3133     3136     8556     8561
       16       92       94     1933     1935      170      171     2293     2295     2969     7919     7535     7920     3140     8823     8557     8824     3136     3139     8551     8556
       17       94       96     1931     1933      171      172     2291     2293     2973     7918     7530     7919     3143     8822     8552     8823     3139     3142     8546     8551
       18       96       98     1927     1931      172      173     2287     2291     2977     7917     7525     7918     3146     8821     8547     8822     3142     3145     8536     8546
       19       98      100     1925     1927      173      174     2285     2287     2981     7916     7515     7917     3149     8820     8537     8821     3145     3148     8531     8536
       20      100      102     1923     1925      174      175     2283     2285     2985     7915     7510     7916     3152     8819     8532     8820     3148     3151     8526     8531
! ... 1607 like lines cut
secnum,1    ! reset the section ID to default
! Material Id = {17A4D303-7050-4EC4-AE26-B8713E12F936}
/wb,elem,end               !  done creating elements
toffst,459.67,      ! Temperature offset from absolute zero
/com,*********** Set Reference Temperature ***********
tref,71.6
/wb,mat,start              !  starting to send materials
/com,*********** Send Materials ***********
MP,EX,1,9999999.99889292,	! slinch s^-2 in^-1
MP,NUXY,1,0.33,
MP,UVID,1,bbf7034c-857f-4eaf-ad97-c623ff6b937c

/wb,mat,end                !  done sending materials
!************************* Model Summary ********************
! Bike Crank 2 rev 2011 x.375,	Al 6061-t6,	matid,	1
!************************* End Model Summary ********************
! get the diagonal of the bounding box. Needed later for other things
*get,_xmin,node,,mnloc,x
*get,_ymin,node,,mnloc,y
*get,_zmin,node,,mnloc,z
*get,_xmax,node,,mxloc,x
*get,_ymax,node,,mxloc,y
*get,_zmax,node,,mxloc,z
_ASMDIAG=(_xmax-_xmin)*(_xmax-_xmin)+(_ymax-_ymin)*(_ymax-_ymin)+(_zmax-_zmin)*(_zmax-_zmin)
_ASMDIAG=SQRT(_ASMDIAG)
/wb,contact,start          !  starting to send contact
/wb,contact,end            !  done creating contacts
/golist
/wb,load,start             !  starting to send loads
/com,*********** Fixed Supports ***********
CMBLOCK,_FIXEDSU,NODE,      327
(8i10)
       207      -210       269       270       272      -274       276       278
       280      -282       284      -286       288       290       292       867
      -890       939      -958       969       970      1000      1001      1003
      1005     -1007      1009      1011      1299     -1310      1335     -1344
      1353      1354      1384      1385      1387      1389     -1391      1393
      1395      1683     -1704      1713      1714      1744      1745      1747
      1749     -1751      1753      1755      2043     -2064      2073      2074
      2104      2105      2107      2109     -2111      2113      2115      2403
     -2436      2643     -2690      2771     -2774      3220      3221      3223
      3335      3337      3338      3340      3350      3351      3353      3355
      3356      3358      3368      3369      4597      4598      4600      4604
      4605      4608      4609      4612      4613      4620     -4622      4627
      4628      4631      4632      4635      4636      4639      4640      4643
      4644      4651     -4653      4658      4757      4758      4761      4762
      4765      4766      4769      4770      4773      4774      4777      4778
      4781      4782      4784      4786     -4788      4791      4792      4795
      4796      4799      4821     -4823      4894      4896     -4898      4905
     -4907      4909     -4911      4918      4919      5727     -5729      5732
      5733      5735      5736      5738      5739      5743     -5745      5748
      5749      5751      5752      5754      5755      5757      5758      5760
! ... 21 like lines cut
cmsel,s,_FIXEDSU
d,all,all
nsel,all
/com,*********** Define Force Using Surface Effect Elements ***********
local,12,0,0.,0.,0.,0.,0.,0.
csys,0
et,2,154
MAT,2 $ TYPE,2 $ REAL,2 $ SECNUM,2 $ ESYS,12    ! ELEMNODES = 8
eblock,21,COMPACT,,24
(21i9)
     3111       49       51       58       54     2881     2914     2891     2798
     3112       41       43       51       49     2866     2882     2881     2797
     3113       37       39       43       41     2859     2867     2866     2796
     3114       51      149      152       58     3083     2783     3088     2914
     3115       43      145      149       51     3074     2782     3083     2882
     3116       39      143      145       43     3070     2781     3074     2867
     3117       25       29       36       34     2838     2855     2854     2795
     3118       15       19       29       25     2828     2928     2838     2794
     3119       22       24       19       15     2835     2833     2828     2793
     3120       29      137      142       36     3057     2780     3068     2855
     3121       19      133      137       29     3051     2779     3057     2928
     3122       24      136      133       19     3055     2778     3051     2833
     3123       62       64       24       22     2902     2925     2835     2789
     3124       53       57       64       62     2888     2903     2902     2788
     3125       54       58       57       53     2891     2889     2888     2787
     3126       64      156      136       24     3096     2786     3055     2925
     3127       57      151      156       64     3087     2785     3096     2903
     3128       58      152      151       57     3088     2784     3087     2889
     3129        3        7       39       37     2809     2860     2859     2792
     3130       10       12        7        3     2816     2814     2809     2791
! ... 5 like lines cut
secnum,1    ! reset the section ID to default
esel,s,type,,2
keyop,2,2,1         ! Apply load in local coordinate system
keyop,2,7,1         ! Use original area so load is constant in large deformation
esel,all
/gst,on,on
fini
*get,_numnode,node,0,count
*get,_numelem,elem,0,count
*get, _MAXELEMNUM, elem, 0, NUM, MAX
*get, _MAXNODENUM, node, 0, NUM, MAX
*get, _MAXELEMTYPE, etyp, 0, NUM, MAX
*get, _MAXREALCONST, rcon, 0, NUM, MAX
/go
/wb,load,end               !  done creating loads
/com,--- Number of total nodes = %_numnode%
/com,--- Number of contact elements = 24
/com,--- Number of spring elements = 0
/com,--- Number of bearing elements = 0
/com,--- Number of solid elements = 1626
/com,--- Number of condensed parts = 0
/com,--- Number of total elements = %_numelem%
*get,_wallbsol,active,,time,wall
/com,****************************************************************************
/com,*************************    SOLUTION       ********************************
/com,****************************************************************************
/solu
antype,0                   ! static analysis
_thickRatio=  1     ! Ratio of thick parts in the model
eqsl,pcg,1e-8,,,,,,1
cntr,print,1               ! print out contact info and also make no initial contact an error
cncheck,dmp		!	Enable program controlled contact splitting for distributed memory parallel run
dmpoption,emat,no             ! Don't combine emat file for DANSYS
dmpoption,esav,no             ! Don't combine esav file for DANSYS
nldiag,cont,iter           ! print out contact info each equilibrium iteration
rescontrol,,none                 ! Do not keep any restart files
/com,****************************************************
/com,******************* SOLVE FOR LS 1 OF 1 ****************
esel,s,type,,2
nsle
sfe,all,1,pres,1,0.
sfe,all,2,pres,1,509.336761167891
sfe,all,3,pres,1,0.
nsel,all
esel,all
/nopr
/gopr
nsub,1,1,1
time,1.
outres,erase
outres,all,none
outres,nsol,all,
outres,rsol,all
outres,eangl,all
outres,etmp,all
outres,veng,all
outres,strs,all,
outres,epel,all,
outres,eppl,all,
outres,cont,all,
! *********** WB SOLVE COMMAND ***********
! check interactive state
*get,ANSINTER_,active,,int
*if,ANSINTER_,ne,0,then
/eof
*endif
solve
/com *************** Write FE CONNECTORS ********* 
CEWRITE,file,ce,,INTE
/com,****************************************************
/com,*************** FINISHED SOLVE FOR LS 1 *************
fini
*get,_wallasol,active,,time,wall
/nopr
*get,_numnode,node,0,count
*get,_numelem,elem,0,count
*get, _MAXELEMNUM, elem, 0, NUM, MAX
*get, _MAXNODENUM, node, 0, NUM, MAX,,,INTERNAL
*get, _MAXELEMTYPE, etyp, 0, NUM, MAX
*get, _MAXREALCONST, rcon, 0, NUM, MAX
*get,_NSOLTHREADS,active,0,ntfs
*get,_NSOLPROCESSES,active,0,npfs
/gopr
*get,_PCGITER,active,,solu,cgiter
/post1
xmlo,ENCODING,ISO-8859-1
xmlo,parm
/xml,parm,xml
fini
/gopr
*get,_walldone,active,,time,wall
_preptime=(_wallbsol-_wallstrt)*3600
_solvtime=(_wallasol-_wallbsol)*3600
_posttime=(_walldone-_wallasol)*3600
_totaltim=(_walldone-_wallstrt)*3600
*get,_dlbratio,active,0,solu,dlbr
*get,_combtime,active,0,solu,comb
*get,_ssmode,active,0,solu,ssmm
*get,_ndofs,active,0,solu,ndof
*get,_sol_end_time,active,0,set,time
*if,_sol_end_time,eq,1.000000,then
/fclean				!clean distributed files
*endif
/com,--- Total number of nodes = %_numnode%
/com,--- Total number of elements = %_numelem%
/com,--- Element load balance ratio = %_dlbratio%
/com,--- Time to combine distributed files = %_combtime%
/com,--- Sparse memory mode = %_ssmode%
/com,--- Number of DOF = %_ndofs%
/wb,file,end               ! done with WB generated input
