/batch
/config,noeldb,1     ! force off writing results to database
*get,_wallstrt,active,,time,wall
! ANSYS input file written by Workbench version 2026 R1
! File used for geometry attach: C:\Users\User\OneDrive\Documents\ANSYS Files\2D Conduction Homework_files\dp0\SYS\DM\SYS.scdocx
/title,2D Conduction Homework--Steady-State Thermal (A5)
! ****** Begin Custom Load Command Snippet ******
/COM, ACT Extensions:
/COM,     LSDYNA, 2026.1
/COM,     5f463412-bd3e-484b-87e7-cbc0a665e474, wbex
/COM,     ANSYSMotion, 2026.1
/COM,     20180725-3f81-49eb-9f31-41364844c769, wbex
! ****** End   Custom Load Command Snippet ******
*DIM,_wb_ProjectScratch_dir,string,248
_wb_ProjectScratch_dir(1) = 'C:\Users\User\OneDrive\Documents\ANSYS Files\_ProjectScratch\Scr1F86\'
*DIM,_wb_SolverFiles_dir,string,248
_wb_SolverFiles_dir(1) = 'C:\Users\User\OneDrive\Documents\ANSYS Files\2D Conduction Homework_files\dp0\SYS\MECH\'
*DIM,_wb_userfiles_dir,string,248
_wb_userfiles_dir(1) = 'C:\Users\User\OneDrive\Documents\ANSYS Files\2D Conduction Homework_files\user_files\'
/com,--- Data in consistent MKS units. See Solving Units in the help system for more information.
/units,MKS
/nopr
/wb,file,start              !  signify a WB generated input file
/prep7
! Turn off shape checking because checks already performed inside WB mesher.
! See help system for more information.
SHPP,OFF,,NOWARN
/nolist
etcon,set             ! allow ANSYS to choose best KEYOP's for 180x elements, resets any applicable keyopt to MAPDL defaults
/com,*********** Send User Defined Coordinate System(s) ***********
csys,0
/com,*********** Nodes for the whole assembly ***********
nblock,3,,8
(1i9,3e20.9e3)
        1     0.000000000E+00     1.000000000E+00     0.000000000E+00
        2     0.000000000E+00     0.000000000E+00     0.000000000E+00
        3     1.000000000E+00     1.000000000E+00     0.000000000E+00
        4     2.000000000E+00     0.000000000E+00     0.000000000E+00
        5     1.000000000E+00     0.000000000E+00     0.000000000E+00
        6     2.000000000E+00     1.000000000E+00     0.000000000E+00
        7     3.000000000E+00     0.000000000E+00     0.000000000E+00
        8     3.000000000E+00     1.000000000E+00     0.000000000E+00
-1
/wb,elem,start            !  set before creation of elements
/com,*********** Elements for Body 1 'SYS\Surface' ***********
et,1,292
keyo,1,3,3
MAT,1 $ TYPE,1 $ REAL,1 $ SECNUM,1 $ ESYS,0    ! ELEMNODES = 4
eblock,21,COMPACT,,3
(21i9)
        1        3        1        2        5
        2        3        5        4        6
        3        8        6        4        7
-1
secnum,1    ! reset the section ID to default
! Material Id = {AB9B141F-9C00-4851-98FE-0091D3497FBA}
/wb,elem,end               !  done creating elements
toffst,273.15,      ! Temperature offset from absolute zero
/wb,mat,start              !  starting to send materials
/com,*********** Send Materials ***********
Temperature = 'TEMP' ! Temperature
MP,DENS,1,7850,	! kg m^-3
MP,ALPX,1,1.2e-05,	! C^-1
MP,C,1,434,	! J kg^-1 C^-1
MP,KXX,1,60.5,	! W m^-1 C^-1
MP,RSVX,1,1.7e-07,	! kg m^3 A^-2 s^-3
MP,EX,1,200000000000,	! Pa
MP,NUXY,1,0.3,
MP,MURX,1,10000,
MP,UVID,1,1da4fda3-499a-43e3-b7ab-e4dc2c523454
MP,UMID,1,59002a79-71c2-428e-906b-55d7dbee100e

/wb,mat,end                !  done sending materials
/com,*********** Send Sheet Properties ***********
r,1,1.

!************************* Model Summary ********************
! SYS\Surface,	Structural Steel,	matid,	1
!************************* End Model Summary ********************
! get the diagonal of the bounding box. Needed later for other things
*get,_xmin,node,,mnloc,x
*get,_ymin,node,,mnloc,y
*get,_zmin,node,,mnloc,z
*get,_xmax,node,,mxloc,x
*get,_ymax,node,,mxloc,y
*get,_zmax,node,,mxloc,z
_ASMDIAG=(_xmax-_xmin)*(_xmax-_xmin)+(_ymax-_ymin)*(_ymax-_ymin)+(_zmax-_zmin)*(_zmax-_zmin)
_ASMDIAG=SQRT(_ASMDIAG)
/wb,contact,start          !  starting to send contact
/wb,contact,end            !  done creating contacts
/golist
/wb,load,start             !  starting to send loads
/com,*********** Define Temperature Constraint ***********
CMBLOCK,_CM54   ,NODE,        2
(8i10)
         1         2
/com,*********** Create "Heat Flux" ***********
et,2,151
keyop,2,3,10        ! get plane option and thickness from underlying element
MAT,2 $ TYPE,2 $ REAL,2 $ SECNUM,2 $ ESYS,0    ! ELEMNODES = 2
eblock,21,COMPACT,,1
(21i9)
        4        8        7
-1
secnum,1    ! reset the section ID to default
esel,s,type,,2
keyop,2,8,1         ! include heat flux
esel,all
fcum,add                   ! add nodal forces up (needed in case have loads on the same edge,vertex)
fcum                       ! reset default on fcum command since done sending WB F loads
/com,*********** Create "Internal Heat Generation" ***********
esel,none
esel,a,type,,1
cm,_CM57,elem
esel,all
/com,***************** Define Uniform Initial temperature ***************
tunif,22.
/gst,on,on
fini
*get,_numnode,node,0,count
*get,_numelem,elem,0,count
*get, _MAXELEMNUM, elem, 0, NUM, MAX
*get, _MAXNODENUM, node, 0, NUM, MAX
*get, _MAXELEMTYPE, etyp, 0, NUM, MAX
*get, _MAXREALCONST, rcon, 0, NUM, MAX
/go
/wb,load,end               !  done creating loads
/com,--- Number of total nodes = %_numnode%
/com,--- Number of contact elements = 1
/com,--- Number of spring elements = 0
/com,--- Number of bearing elements = 0
/com,--- Number of solid elements = 3
/com,--- Number of condensed parts = 0
/com,--- Number of total elements = %_numelem%
*get,_wallbsol,active,,time,wall
/com,****************************************************************************
/com,*************************    SOLUTION       ********************************
/com,****************************************************************************
/solu
antype,0                   ! static analysis
!eqsl,sparse               ! using sparse solver which is default so no eqsl command needed
cntr,print,1               ! print out contact info and also make no initial contact an error
cncheck,dmp		!	Enable program controlled contact splitting for distributed memory parallel run
rescontrol,,none                 ! Do not keep any restart files
dmpoption,emat,no             ! Don't combine emat file for DANSYS
dmpoption,esav,no             ! Don't combine esav file for DANSYS
/com,****************************************************
/com,******************* SOLVE FOR LS 1 OF 1 ****************
d,_CM54,temp,0.
esel,s,type,,2
nsle
sf,all,hflux,-0.5
nsel,all
esel,all
bfe,_CM57,hgen,,2.
/nopr
/gopr
autots,on
nsub,1,10,1
time,1.
outres,erase
outres,all,none
outres,nsol,all
outres,rsol,all
outres,eangl,all
outres,veng,all
outres,fflux,all,
outres,cont,all,
cnvtol,heat,,1.e-003,,1.e-006 ! Program Controlled. Set MINREF equivalent of 1e-6 Watts
! *********** WB SOLVE COMMAND ***********
! check interactive state
*get,ANSINTER_,active,,int
*if,ANSINTER_,ne,0,then
/eof
*endif
solve
/com *************** Write FE CONNECTORS ********* 
CEWRITE,file,ce,,INTE
/com,****************************************************
/com,*************** FINISHED SOLVE FOR LS 1 *************
fini
*get,_wallasol,active,,time,wall
/post1
xmlo,ENCODING,ISO-8859-1
xmlo,parm
/xml,parm,xml
fini
/gopr
*get,_walldone,active,,time,wall
_preptime=(_wallbsol-_wallstrt)*3600
_solvtime=(_wallasol-_wallbsol)*3600
_posttime=(_walldone-_wallasol)*3600
_totaltim=(_walldone-_wallstrt)*3600
*get,_dlbratio,active,0,solu,dlbr
*get,_combtime,active,0,solu,comb
*get,_ssmode,active,0,solu,ssmm
*get,_ndofs,active,0,solu,ndof
/fclean				!clean distributed files
/com,--- Total number of nodes = %_numnode%
/com,--- Total number of elements = %_numelem%
/com,--- Element load balance ratio = %_dlbratio%
/com,--- Time to combine distributed files = %_combtime%
/com,--- Sparse memory mode = %_ssmode%
/com,--- Number of DOF = %_ndofs%
/wb,file,end               ! done with WB generated input
