/batch
/config,noeldb,1     ! force off writing results to database
*get,_wallstrt,active,,time,wall
! ANSYS input file written by Workbench version 2026 R1
! File used for geometry attach: C:\Users\User\OneDrive\Documents\ANSYS Files\Bike Crank Homework\Bike Crank Homework_files\dp0\SYS\DM\SYS.agdb
/title,Bike Crank Homework--Static Structural (A5)
! ****** Begin Custom Load Command Snippet ******
/COM, ACT Extensions:
/COM,     LSDYNA, 2026.1
/COM,     5f463412-bd3e-484b-87e7-cbc0a665e474, wbex
/COM,     ANSYSMotion, 2026.1
/COM,     20180725-3f81-49eb-9f31-41364844c769, wbex
! ****** End   Custom Load Command Snippet ******
*DIM,_wb_ProjectScratch_dir,string,248
_wb_ProjectScratch_dir(1) = 'C:\Users\User\OneDrive\Documents\ANSYS Files\Bike Crank Homework\_ProjectScratch\Scr83A9\'
*DIM,_wb_SolverFiles_dir,string,248
_wb_SolverFiles_dir(1) = 'C:\Users\User\OneDrive\Documents\ANSYS Files\Bike Crank Homework\Bike Crank Homework_files\dp0\SYS\MECH\'
*DIM,_wb_userfiles_dir,string,248
_wb_userfiles_dir(1) = 'C:\Users\User\OneDrive\Documents\ANSYS Files\Bike Crank Homework\Bike Crank Homework_files\user_files\'
/com,--- Data in consistent BIN units. See Solving Units in the help system for more information.
/units,BIN
/nopr
/wb,file,start              !  signify a WB generated input file
/prep7
! Turn off shape checking because checks already performed inside WB mesher.
! See help system for more information.
SHPP,OFF,,NOWARN
/nolist
etcon,set             ! allow ANSYS to choose best KEYOP's for 180x elements, resets any applicable keyopt to MAPDL defaults
/com,*********** Send User Defined Coordinate System(s) ***********
csys,0
/com,*********** Nodes for the whole assembly ***********
nblock,3,,15780
(1i9,3e20.9e3)
        1     2.318804626E-01    -9.344222071E-02     9.375000000E-02
        2     2.318824949E-01    -9.343719044E-02     0.000000000E+00
        3     2.500000000E-01     6.123233996E-17     9.375000116E-02
        4     2.499999970E-01     3.061616897E-17     0.000000000E+00
        5     2.628518782E-01    -4.518325466E-02     4.689791912E-02
        6     2.318784362E-01    -9.344725433E-02     1.875000000E-01
        7     2.500000000E-01     6.123233996E-17     1.875000023E-01
        8     2.683606993E-01    -5.203977548E-02     1.406251494E-01
        9     2.318764140E-01    -9.345228973E-02     2.812500000E-01
       10     2.500000000E-01     6.123233996E-17     2.812500035E-01
       11     2.648324664E-01    -5.133669867E-02     2.343961537E-01
       12     2.318743819E-01    -9.345732194E-02     3.750000000E-01
       13     2.499999970E-01     3.061616897E-17     3.750000046E-01
       14     2.898191116E-01    -4.049320106E-02     3.482935819E-01
       15     1.777373923E-01    -1.758107631E-01     9.375000000E-02
       16     1.777432022E-01    -1.758048750E-01     0.000000000E+00
       17     2.485957940E-01    -1.652695192E-01     3.312899749E-02
       18     1.777315724E-01    -1.758166429E-01     1.875000000E-01
       19     2.411833288E-01    -1.469558559E-01     1.442407253E-01
       20     1.777257442E-01    -1.758225145E-01     2.812500000E-01
! ... 14327 like lines cut
/wb,elem,start            !  set before creation of elements
/com,*********** Elements for Body 1 'Solid' ***********
et,1,187
MAT,1 $ TYPE,1 $ REAL,1 $ SECNUM,1 $ ESYS,0    ! ELEMNODES = 10
eblock,21,COMPACT,,7808
(21i9)
        1     1234     1225     1177     1228    10017    10014     2572    14344    13245    14343
        2     1234     1228     1177     1173    14344    14343     2572     2575    10025     2573
        3     1860     1333     1956     1331    10529    12698    12506     2812    12404    13484
        4     1860     1956     1834     1331    12506     3884     2809     2812    13484     2813
        5      865     1833     1883     1956    12403     2820     4846     4463     2819     2816
        6     2044     1048     1047     1046    13605     9423     9435     9442     9427     8011
        7     1050     2044     1053     1049     9443     9463     9436     9444     9446     9459
        8     1053     1054     2044     2148     9458     9472     9463     4851     9469     9465
        9     1998     2212     1573     2080     8772    13672    14119    13982    13673    13597
       10      914      627     2017     1998     8767     7891     3250     8768     7877    13983
       11      912      911     1999     1998     8756     8758     4627     4625     8771     3158
       12     1997     1998     1999     1573     3154     3158     3157    11332    14119    13847
       13     1997     1958     1998     1573    14120     4617     3154    11332     4619    14119
       14      910     1997      500     1998     3153     7889     7888     3155     3154     4614
       15      628     1998     1958      627     4613     4617     4616     7875     7877     7882
       16     1559     1558     1638     1557     5644    11267    10797     5645     5647    11270
       17     2235     1937     2182     2029    13116     7653    13722    13115    13114     5649
       18     1937     2182     2029     2160     7653     5649    13114    13473     5652     5169
       19     2160     2227     2003     2005    11191    12863    13514    11575    11573     3181
       20     1558     2160     2029     1559     5172     5169     3335     5644     5651     5648
! ... 7789 like lines cut
secnum,1    ! reset the section ID to default
! Material Id = {1601F0CB-AB8B-4EB3-96E4-014A3B00369A}
et,2,186
keyo,2,2,1          ! set full integration on SOLID186
MAT,1 $ TYPE,2 $ REAL,1 $ SECNUM,1 $ ESYS,0    ! ELEMNODES = 20
eblock,21,COMPACT,,1031
(21i9)
     7809     1431     1428     1905     1892     1433     1433     1433     1433     2478    14149    12674    14101     1433     1433     1433     1433    13458    10822     2896    12692
     7810      759      756     1901     1890     1918     1918     1918     1918     2514    12679    12665    12683     1918     1918     1918     1918    12690     8287    12662    12666
     7811     1434     1431     1892     1893     1436     1436     1436     1436     2477    14101    12689    12624     1436     1436     1436     1436    10830    13457     3481    12623
     7812      762      759     1890     1891     1917     1917     1917     1917     2513    12683    13959    14011     1917     1917     1917     1917     8304    12682    12628    12616
     7813     1428     1425     1813     1905     1916     1916     1916     1916     2479     5163     5221    14149     1916     1916     1916     1916    14148    12681     5220     2898
     7814      756      753     1816     1901     1915     1915     1915     1915     2515    12441    12621    12679     1915     1915     1915     1915    12676     3576     3580    12678
     7815      771      768     1892     1905      773      773      773      773     2510     8311    12674     5226      773      773      773      773     5224     8310     8307     5223
     7816      878      875     1888     1898      880      880      880      880     2532    12672    12631    14236      880      880      880      880     8666    12671    12670     8657
     7817     1520     1523     1887     1895     1914     1914     1914     1914     2496    12646    12640    12651     1914     1914     1914     1914    10570    12669     5553    12639
     7818     1443     1440     1890     1901     1913     1913     1913     1913     2474    14221    12665    12761     1913     1913     1913     1913    12760     3558    12664    12661
     7819      875      873     1810     1888     1912     1912     1912     1912     2533    12659    13895    12672     1912     1912     1912     1912    13631    12658    12656     3440
     7820     1523     1516     1805     1887     1911     1911     1911     1911     2497    12450    14195    12646     1911     1911     1911     1911    12645    12825    12084    12596
     7821      881      878     1898     1899     1910     1910     1910     1910     2531    14236    14051     8661     1910     1910     1910     1910     8663    12655     4864     8664
     7822      556     1308      574     1199     1909     1909     1909     1909     2257    12275     2410     7672     1909     1909     1909     1909    12652    10455     7945     7944
     7823     1341     1520     1895     1896     1908     1908     1908     1908     2495    12651    14170    10566     1908     1908     1908     1908    11123    10572    12650     5639
     7824      887      885     1895     1887     1907     1907     1907     1907     2528    12637    12640    13574     1907     1907     1907     1907    13573    12636    12633     5554
     7825      774      771     1905     1813     1906     1906     1906     1906     2509     5226     5221    12353     1906     1906     1906     1906    12355     5225     2902     5219
     7826     1336     1337     1898     1888     1904     1904     1904     1904     2492    10439    12631    13380     1904     1904     1904     1904     3434    10438     4870    12632
     7827     1339     1341     1896     1899     1343     1343     1343     1343     2494    10566     4597    12609     1343     1343     1343     1343    10432    10560     4596     4593
     7828     1437     1434     1893     1891     1903     1903     1903     1903     2476    12624    12612    14159     1903     1903     1903     1903    13357    10834    12622    12625
! ... 1012 like lines cut
secnum,1    ! reset the section ID to default
! Material Id = {1601F0CB-AB8B-4EB3-96E4-014A3B00369A}
/wb,elem,end               !  done creating elements
toffst,459.67,      ! Temperature offset from absolute zero
/com,*********** Set Reference Temperature ***********
tref,71.6
/wb,mat,start              !  starting to send materials
/com,*********** Send Materials ***********
MP,EX,1,9999999.99889292,	! slinch s^-2 in^-1
MP,NUXY,1,0.33,
MP,UVID,1,e5dd731c-59d4-4507-a5f8-c20d8fdf9e53

/wb,mat,end                !  done sending materials
!************************* Model Summary ********************
! Solid,	Al 6061 T6,	matid,	1
!************************* End Model Summary ********************
! get the diagonal of the bounding box. Needed later for other things
*get,_xmin,node,,mnloc,x
*get,_ymin,node,,mnloc,y
*get,_zmin,node,,mnloc,z
*get,_xmax,node,,mxloc,x
*get,_ymax,node,,mxloc,y
*get,_zmax,node,,mxloc,z
_ASMDIAG=(_xmax-_xmin)*(_xmax-_xmin)+(_ymax-_ymin)*(_ymax-_ymin)+(_zmax-_zmin)*(_zmax-_zmin)
_ASMDIAG=SQRT(_ASMDIAG)
/wb,contact,start          !  starting to send contact
/wb,contact,end            !  done creating contacts
/golist
/wb,load,start             !  starting to send loads
/com,*********** Fixed Supports ***********
CMBLOCK,_FIXEDSU,NODE,      376
(8i10)
         1        -4         6         7         9        10        12        13
        15        16        18        20        22        24        25        27
        29        31        33        34        36        38        40        42
       -45        47        48        50        51        53        54        56
        57        59        61        63        65       -68        70        71
        73        74        76        77        79        80        82        84
        86       355      -358       360       361       363       364       366
       367       369       370       372       374       376       378       379
       381       383       385       391      -394       396       397       399
       400       402       403       405       406       408       410       412
       414       415       417       419       421       427       428       430
       432       434       436       437       439       441       443       445
       446       448       450       452       458       459       461       463
       465       467       468       470       472       474       476       477
       479       481       483       485       486       488       490       492
       494       495       497       499       501       507       508       510
       512       514       516       517       519       521       523       525
       526       528       530       532       534       535       537       539
       541       543       544       546       548       550      2236     -2251
      2414     -2461      3043      3377      4403      4750      4779      4995
! ... 27 like lines cut
cmsel,s,_FIXEDSU
d,all,all
nsel,all
/com,*********** Define Force Using Surface Effect Elements ***********
local,12,0,0.,0.,0.,0.,0.,0.
csys,0
et,3,154
MAT,3 $ TYPE,3 $ REAL,3 $ SECNUM,3 $ ESYS,12    ! ELEMNODES = 8
eblock,21,COMPACT,,8
(21i9)
     9871      562     1160     1152     1200     5181     2559    13724     2563
     9872      561     1179     1160      562    12324     2558     5181     2562
     9873     1214     1184     1179      561    10046     2557    12324     2569
     9874     1197     1167     1184     1214    12325     2556    10046     2568
     9875     1232     1165     1167     1197    10118     2555    12325     2565
     9876     1233     1172     1165     1232    10233     2554    10118     2564
     9877     1206     1154     1172     1233    12348     2561    10233     2567
     9878     1200     1152     1154     1206    13724     2560    12348     2566
-1
secnum,1    ! reset the section ID to default
esel,s,type,,3
keyop,3,2,1         ! Apply load in local coordinate system
keyop,3,7,1         ! Use original area so load is constant in large deformation
esel,all
/gst,on,on
fini
*get,_numnode,node,0,count
*get,_numelem,elem,0,count
*get, _MAXELEMNUM, elem, 0, NUM, MAX
*get, _MAXNODENUM, node, 0, NUM, MAX
*get, _MAXELEMTYPE, etyp, 0, NUM, MAX
*get, _MAXREALCONST, rcon, 0, NUM, MAX
/go
/wb,load,end               !  done creating loads
/com,--- Number of total nodes = %_numnode%
/com,--- Number of contact elements = 8
/com,--- Number of spring elements = 0
/com,--- Number of bearing elements = 0
/com,--- Number of solid elements = 8839
/com,--- Number of condensed parts = 0
/com,--- Number of total elements = %_numelem%
*get,_wallbsol,active,,time,wall
/com,****************************************************************************
/com,*************************    SOLUTION       ********************************
/com,****************************************************************************
/solu
antype,0                   ! static analysis
_thickRatio=  1     ! Ratio of thick parts in the model
eqsl,pcg,1e-8,,,,,,1
cntr,print,1               ! print out contact info and also make no initial contact an error
cncheck,dmp		!	Enable program controlled contact splitting for distributed memory parallel run
dmpoption,emat,no             ! Don't combine emat file for DANSYS
dmpoption,esav,no             ! Don't combine esav file for DANSYS
nldiag,cont,iter           ! print out contact info each equilibrium iteration
rescontrol,,none                 ! Do not keep any restart files
/com,****************************************************
/com,******************* SOLVE FOR LS 1 OF 1 ****************
esel,s,type,,3
nsle
sfe,all,1,pres,1,0.
sfe,all,2,pres,1,509.490909691141
sfe,all,3,pres,1,0.
nsel,all
esel,all
/nopr
/gopr
nsub,1,1,1
time,1.
outres,erase
outres,all,none
outres,nsol,all,
outres,rsol,all
outres,eangl,all
outres,etmp,all
outres,veng,all
outres,strs,all,
outres,bkstr,all,
outres,epel,all,
outres,eppl,all,
outres,cont,all,
outres,nldat,all,
stabilize,off                   ! Stabilization turned OFF by user
! *********** WB SOLVE COMMAND ***********
! check interactive state
*get,ANSINTER_,active,,int
*if,ANSINTER_,ne,0,then
/eof
*endif
solve
/com *************** Write FE CONNECTORS ********* 
CEWRITE,file,ce,,INTE
/com,****************************************************
/com,*************** FINISHED SOLVE FOR LS 1 *************
fini
*get,_wallasol,active,,time,wall
/nopr
*get,_numnode,node,0,count
*get,_numelem,elem,0,count
*get, _MAXELEMNUM, elem, 0, NUM, MAX
*get, _MAXNODENUM, node, 0, NUM, MAX,,,INTERNAL
*get, _MAXELEMTYPE, etyp, 0, NUM, MAX
*get, _MAXREALCONST, rcon, 0, NUM, MAX
*get,_NSOLTHREADS,active,0,ntfs
*get,_NSOLPROCESSES,active,0,npfs
/gopr
*get,_PCGITER,active,,solu,cgiter
/post1
xmlo,ENCODING,ISO-8859-1
xmlo,parm
/xml,parm,xml
fini
/gopr
*get,_walldone,active,,time,wall
_preptime=(_wallbsol-_wallstrt)*3600
_solvtime=(_wallasol-_wallbsol)*3600
_posttime=(_walldone-_wallasol)*3600
_totaltim=(_walldone-_wallstrt)*3600
*get,_dlbratio,active,0,solu,dlbr
*get,_combtime,active,0,solu,comb
*get,_ssmode,active,0,solu,ssmm
*get,_ndofs,active,0,solu,ndof
*get,_sol_end_time,active,0,set,time
*if,_sol_end_time,eq,1.000000,then
/fclean				!clean distributed files
*endif
/com,--- Total number of nodes = %_numnode%
/com,--- Total number of elements = %_numelem%
/com,--- Element load balance ratio = %_dlbratio%
/com,--- Time to combine distributed files = %_combtime%
/com,--- Sparse memory mode = %_ssmode%
/com,--- Number of DOF = %_ndofs%
/wb,file,end               ! done with WB generated input
