/batch
/config,noeldb,1     ! force off writing results to database
*get,_wallstrt,active,,time,wall
! ANSYS input file written by Workbench version 2026 R1
! File used for geometry attach: C:\Users\User\OneDrive\Documents\ANSYS Files\2D Conductio n_files\dp0\SYS\DM\SYS.scdocx
/title,2D Conductio n--Steady-State Thermal (B5)
! ****** Begin Custom Load Command Snippet ******
/COM, ACT Extensions:
/COM,     LSDYNA, 2026.1
/COM,     5f463412-bd3e-484b-87e7-cbc0a665e474, wbex
/COM,     ANSYSMotion, 2026.1
/COM,     20180725-3f81-49eb-9f31-41364844c769, wbex
! ****** End   Custom Load Command Snippet ******
*DIM,_wb_ProjectScratch_dir,string,248
_wb_ProjectScratch_dir(1) = 'C:\Users\User\OneDrive\Documents\ANSYS Files\_ProjectScratch\ScrDB30\'
*DIM,_wb_SolverFiles_dir,string,248
_wb_SolverFiles_dir(1) = 'C:\Users\User\OneDrive\Documents\ANSYS Files\2D Conductio n_files\dp0\SYS-1\MECH\'
*DIM,_wb_userfiles_dir,string,248
_wb_userfiles_dir(1) = 'C:\Users\User\OneDrive\Documents\ANSYS Files\2D Conductio n_files\user_files\'
/com,--- Data in consistent MKS units. See Solving Units in the help system for more information.
/units,MKS
/nopr
/wb,file,start              !  signify a WB generated input file
/prep7
! Turn off shape checking because checks already performed inside WB mesher.
! See help system for more information.
SHPP,OFF,,NOWARN
/nolist
etcon,set             ! allow ANSYS to choose best KEYOP's for 180x elements, resets any applicable keyopt to MAPDL defaults
/com,*********** Send User Defined Coordinate System(s) ***********
local,12,0,0.5,1.,0.,0.,0.,0.
local,13,0,0.5,1.,0.,0.,0.,0.
csys,0
/com,*********** Nodes for the whole assembly ***********
nblock,3,,476
(1i9,3e20.9e3)
        1     1.000000000E+00     2.000000000E+00     0.000000000E+00
        2     0.000000000E+00     2.000000000E+00     0.000000000E+00
        3     0.000000000E+00     0.000000000E+00     0.000000000E+00
        4     1.000000000E+00     0.000000000E+00     0.000000000E+00
        5     1.250000000E-01     1.250000000E-01     0.000000000E+00
        6     1.250000000E-01     2.500000000E-01     0.000000000E+00
        7     1.250000000E-01     3.750000000E-01     0.000000000E+00
        8     1.250000000E-01     5.000000000E-01     0.000000000E+00
        9     1.250000000E-01     6.250000000E-01     0.000000000E+00
       10     1.250000000E-01     7.500000000E-01     0.000000000E+00
       11     1.250000000E-01     8.750000000E-01     0.000000000E+00
       12     1.250000000E-01     1.000000000E+00     0.000000000E+00
       13     1.250000000E-01     1.125000000E+00     0.000000000E+00
       14     1.250000000E-01     1.250000000E+00     0.000000000E+00
       15     1.250000000E-01     1.375000000E+00     0.000000000E+00
       16     1.250000000E-01     1.500000000E+00     0.000000000E+00
       17     1.250000000E-01     1.625000000E+00     0.000000000E+00
       18     1.250000000E-01     1.750000000E+00     0.000000000E+00
       19     1.250000000E-01     1.875000000E+00     0.000000000E+00
       20     2.500000000E-01     1.250000000E-01     0.000000000E+00
! ... 414 like lines cut
/wb,elem,start            !  set before creation of elements
/com,*********** Elements for Body 1 'SYS\Surface' ***********
et,1,293
keyo,1,3,3
MAT,1 $ TYPE,1 $ REAL,1 $ SECNUM,1 $ ESYS,0    ! ELEMNODES = 8
eblock,21,COMPACT,,128
(21i9)
        1      125        5      146        3      164      165      159      158
        2      126       20        5      125      210      163      164      408
        3      127       35       20      126      241      209      210      409
        4      128       50       35      127      272      240      241      410
        5      129       65       50      128      303      271      272      411
        6      130       80       65      129      334      302      303      412
        7      131       95       80      130      365      333      334      413
        8        4      110       95      131      160      364      365      161
        9        5        6      145      146      162      168      427      165
       10       20       21        6        5      208      167      162      163
       11       35       36       21       20      239      212      208      209
       12       50       51       36       35      270      243      239      240
       13       65       66       51       50      301      274      270      271
       14       80       81       66       65      332      305      301      302
       15       95       96       81       80      363      336      332      333
       16      110      111       96       95      394      367      363      364
       17        6        7      144      145      166      171      426      168
       18       21       22        7        6      211      170      166      167
       19       36       37       22       21      242      214      211      212
       20       51       52       37       36      273      245      242      243
! ... 109 like lines cut
secnum,1    ! reset the section ID to default
! Material Id = {BEE69B06-1FE8-43E9-8DAD-E609911F4682}
/wb,elem,end               !  done creating elements
toffst,273.15,      ! Temperature offset from absolute zero
/wb,mat,start              !  starting to send materials
/com,*********** Send Materials ***********
MP,KXX,1,1,	! W m^-1 C^-1
MP,UVID,1,d94c167b-87be-402f-a237-46b2a5fb2c68

/wb,mat,end                !  done sending materials
/com,*********** Send Sheet Properties ***********
r,1,1.

!************************* Model Summary ********************
! SYS\Surface,	big red,	matid,	1
!************************* End Model Summary ********************
! get the diagonal of the bounding box. Needed later for other things
*get,_xmin,node,,mnloc,x
*get,_ymin,node,,mnloc,y
*get,_zmin,node,,mnloc,z
*get,_xmax,node,,mxloc,x
*get,_ymax,node,,mxloc,y
*get,_zmax,node,,mxloc,z
_ASMDIAG=(_xmax-_xmin)*(_xmax-_xmin)+(_ymax-_ymin)*(_ymax-_ymin)+(_zmax-_zmin)*(_zmax-_zmin)
_ASMDIAG=SQRT(_ASMDIAG)
/wb,contact,start          !  starting to send contact
/wb,contact,end            !  done creating contacts
/golist
/wb,load,start             !  starting to send loads
/com,*********** Define Temperature Constraint ***********
CMBLOCK,_CM47   ,NODE,        8
(8i10)
         3         4       125      -131       158       161       408      -413
fcum,add                   ! add nodal forces up (needed in case have loads on the same edge,vertex)
fcum                       ! reset default on fcum command since done sending WB F loads
/com,*********** Create "Convection" ***********
et,2,151
keyop,2,3,10        ! get plane option and thickness from underlying element
MAT,2 $ TYPE,2 $ REAL,2 $ SECNUM,2 $ ESYS,0    ! ELEMNODES = 3
eblock,21,COMPACT,,16
(21i9)
      129      110        4      160
      130      111      110      394
      131      112      111      395
      132      113      112      396
      133      114      113      397
      134      115      114      398
      135      116      115      399
      136      117      116      400
      137      118      117      401
      138      119      118      402
      139      120      119      403
      140      121      120      404
      141      122      121      405
      142      123      122      406
      143      124      123      407
      144        1      124      154
-1
secnum,1    ! reset the section ID to default
esel,s,type,,2
keyop,2,8,2
keyop,2,13,0
esel,all
/com,***************** Define Uniform Initial temperature ***************
tunif,22.
/gst,on,on
fini
*get,_numnode,node,0,count
*get,_numelem,elem,0,count
*get, _MAXELEMNUM, elem, 0, NUM, MAX
*get, _MAXNODENUM, node, 0, NUM, MAX
*get, _MAXELEMTYPE, etyp, 0, NUM, MAX
*get, _MAXREALCONST, rcon, 0, NUM, MAX
/go
/wb,load,end               !  done creating loads
/com,--- Number of total nodes = %_numnode%
/com,--- Number of contact elements = 16
/com,--- Number of spring elements = 0
/com,--- Number of bearing elements = 0
/com,--- Number of solid elements = 128
/com,--- Number of condensed parts = 0
/com,--- Number of total elements = %_numelem%
*get,_wallbsol,active,,time,wall
/com,****************************************************************************
/com,*************************    SOLUTION       ********************************
/com,****************************************************************************
/solu
antype,0                   ! static analysis
!eqsl,sparse               ! using sparse solver which is default so no eqsl command needed
cntr,print,1               ! print out contact info and also make no initial contact an error
cncheck,dmp		!	Enable program controlled contact splitting for distributed memory parallel run
rescontrol,,none                 ! Do not keep any restart files
dmpoption,emat,no             ! Don't combine emat file for DANSYS
dmpoption,esav,no             ! Don't combine esav file for DANSYS
/com,****************************************************
/com,******************* SOLVE FOR LS 1 OF 1 ****************
d,_CM47,temp,1.
esel,s,type,,2
nsle
sf,all,conv,5.,0.
nsel,all
esel,all
/nopr
/gopr
autots,on
nsub,1,10,1
time,1.
outres,erase
outres,all,none
outres,nsol,all
outres,rsol,all
outres,eangl,all
outres,veng,all
outres,fflux,all,
outres,cont,all,
/nopr
esel,s,type,,2
cm,_elmisc,elem
esel,all
/gopr
outres,misc,all,_elmisc
cnvtol,heat,,1.e-003,,1.e-006 ! Program Controlled. Set MINREF equivalent of 1e-6 Watts
! *********** WB SOLVE COMMAND ***********
! check interactive state
*get,ANSINTER_,active,,int
*if,ANSINTER_,ne,0,then
/eof
*endif
solve
/com *************** Write FE CONNECTORS ********* 
CEWRITE,file,ce,,INTE
/com,****************************************************
/com,*************** FINISHED SOLVE FOR LS 1 *************
fini
*get,_wallasol,active,,time,wall
/post1
xmlo,ENCODING,ISO-8859-1
xmlo,parm
/xml,parm,xml
fini
/gopr
*get,_walldone,active,,time,wall
_preptime=(_wallbsol-_wallstrt)*3600
_solvtime=(_wallasol-_wallbsol)*3600
_posttime=(_walldone-_wallasol)*3600
_totaltim=(_walldone-_wallstrt)*3600
*get,_dlbratio,active,0,solu,dlbr
*get,_combtime,active,0,solu,comb
*get,_ssmode,active,0,solu,ssmm
*get,_ndofs,active,0,solu,ndof
/fclean				!clean distributed files
/com,--- Total number of nodes = %_numnode%
/com,--- Total number of elements = %_numelem%
/com,--- Element load balance ratio = %_dlbratio%
/com,--- Time to combine distributed files = %_combtime%
/com,--- Sparse memory mode = %_ssmode%
/com,--- Number of DOF = %_ndofs%
/wb,file,end               ! done with WB generated input
